10
Mol2 - RDKit optimized
C     -0.977830    -0.174719    -0.323141
C      0.183161    -0.054108     0.663250
N      1.421865     0.323699    -0.013476
H     -1.901088    -0.462265     0.222568
H     -0.756856    -0.952891    -1.084167
H     -1.152802     0.796828    -0.832082
H      0.329928    -1.026843     1.180265
H     -0.063334     0.711012     1.430643
H      1.643109    -0.396253    -0.739476
H      1.273846     1.235541    -0.504383
