15
Mol3 - RDKit optimized
C      2.220686    -0.057015     0.021277
C      0.721434    -0.015879     0.036943
C     -0.018456    -1.207001     0.116229
C     -1.416417    -1.169845     0.093317
C     -2.082960     0.053336    -0.021571
C     -1.352487     1.241025    -0.118816
C      0.045584     1.208038    -0.096270
H      2.595189    -0.917040     0.616385
H      2.576158    -0.158538    -1.025320
H      2.642653     0.872767     0.458887
H      0.485924    -2.162108     0.196134
H     -1.982886    -2.089665     0.160794
H     -3.164801     0.080354    -0.040549
H     -1.869480     2.187004    -0.215510
H      0.599860     2.134566    -0.181929
